# This file contains metadata for your plugin.

# This file should be included when you package your plugin.# Mandatory items:

[general]
name=Delft3D Flexible Mesh
qgisMinimumVersion=3.0
description=This plugin will provide basic tools for Flexible Mesh
version=0.1 
author=Jurjen de Jong, Deltares
email=jurjen.dejong@deltares.nl

about=This plugin provides some functionality for visualising input and output files of Delft3D-FM by Deltares.

tracker=http://github.com/jurjendejong/QGIS_D3D_FM
repository=http://github.com/jurjendejong/QGIS_D3D_FM
# End of mandatory metadata

# Recommended items:

hasProcessingProvider=no
# Uncomment the following line and add your changelog:
# changelog=

# Tags are comma separated with spaces allowed
tags=python

homepage=http://github.com/jurjendejong/QGIS_D3D_FM
category=Plugins
icon=icon.png
# experimental flag
experimental=True

# deprecated flag (applies to the whole plugin, not just a single version)
deprecated=False

# Since QGIS 3.8, a comma separated list of plugins to be installed
# (or upgraded) can be specified.
# Check the documentation for more information.
# plugin_dependencies=

# Category of the plugin: Raster, Vector, Database or Web
# category=

# If the plugin can run on QGIS Server.
server=False

